
 OpenBabel05242113183D

  5  4  0  0  0  0  0  0  0  0999 V2000
    1.0295   -0.0648   -0.0702 N   0  3  0  0  0  0  0  0  0  0  0  0
    0.6813   -0.7073    0.6760 H   0  0  0  0  0  0  0  0  0  0  0  0
    0.6813    0.9027    0.1131 H   0  0  0  0  0  0  0  0  0  0  0  0
    0.6813   -0.3898   -0.9997 H   0  0  0  0  0  0  0  0  0  0  0  0
    2.0739   -0.0648   -0.0702 H   0  0  0  0  0  0  0  0  0  0  0  0
  1  2  1  0  0  0  0
  1  3  1  0  0  0  0
  1  4  1  0  0  0  0
  1  5  1  0  0  0  0
M  CHG  1   1   1
M  END
