
  xtb     05242113183D
 xtb: 6.3.3 (7355c4f)
  8  6  0     0  0            999 V2000
    0.9984   -0.0231   -0.0613 c   0  0  0  0  0  0  0  0  0  0  0  0
    2.4429   -0.0094   -0.0555 n   0  0  0  0  0  0  0  0  0  0  0  0
    2.8424    0.3550   -0.9097 h   0  0  0  0  0  0  0  0  0  0  0  0
    3.3670    1.1453    1.2983 h   0  0  0  0  0  0  0  0  0  0  0  0
    2.8493   -0.9045    0.1786 h   0  0  0  0  0  0  0  0  0  0  0  0
    0.6352    0.9874   -0.2413 h   0  0  0  0  0  0  0  0  0  0  0  0
    0.6437   -0.3483    0.9154 h   0  0  0  0  0  0  0  0  0  0  0  0
    0.5751   -0.6886   -0.8268 h   0  0  0  0  0  0  0  0  0  0  0  0
  1  2  1  0  0  0  0
  2  3  1  0  0  0  0
  2  5  1  0  0  0  0
  1  6  1  0  0  0  0
  1  7  1  0  0  0  0
  1  8  1  0  0  0  0
M  END
