17

C          0.94710       -0.04500        0.07460
C          2.48860       -0.04590        0.07120
C          3.00020        1.35540        0.46000
C          3.00020       -1.07780        1.09570
N          2.98020       -0.39690       -1.27210
H          2.64040       -1.34690       -1.54990
H          2.64040        0.29590       -1.97910
H          4.02660       -0.40140       -1.28960
H          0.55560        0.21800        1.08110
H          0.55590       -1.04770       -0.20180
H          0.55590        0.69430       -0.65700
H          2.63950        1.63940        1.47230
H          2.64130        2.11670       -0.26550
H          4.11120        1.37730        0.46550
H          2.63960       -0.83040        2.11760
H          4.11120       -1.09420        1.11130
H          2.64140       -2.09680        0.83540
