
 OpenBabel05242113183D

  7  6  0  0  0  0  0  0  0  0999 V2000
    1.1555   -0.0364    0.0632 C   0  0  0  0  0  0  0  0  0  0  0  0
    2.9596   -0.1934    0.2052 S   0  3  0  0  0  0  0  0  0  0  0  0
    3.1395   -0.1650   -1.1909 H   0  0  0  0  0  0  0  0  0  0  0  0
    3.1395    1.1985    0.3167 H   0  0  0  0  0  0  0  0  0  0  0  0
    0.7286   -0.9998   -0.2839 H   0  0  0  0  0  0  0  0  0  0  0  0
    0.8965    0.7643   -0.6610 H   0  0  0  0  0  0  0  0  0  0  0  0
    0.7286    0.2125    1.0565 H   0  0  0  0  0  0  0  0  0  0  0  0
  1  2  1  0  0  0  0
  1  5  1  0  0  0  0
  1  6  1  0  0  0  0
  1  7  1  0  0  0  0
  2  3  1  0  0  0  0
  2  4  1  0  0  0  0
M  CHG  1   2   1
M  END
