
  xtb     02102216263D
 xtb: 6.4.1 (23d549d)
  8  7  0     0  0            999 V2000
    1.2598   -0.0003    0.0149 C   0  0  0  0  0  0  0  0  0  0  0  0
   -0.5759    0.0001   -0.0449 P   0  0  0  0  0  0  0  0  0  0  0  0
   -0.6578   -1.5001   -0.0773 H   0  0  0  0  0  0  0  0  0  0  0  0
   -0.8880   -0.0002    1.3077 H   0  0  0  0  0  0  0  0  0  0  0  0
   -0.6533    1.5003   -0.0773 H   0  0  0  0  0  0  0  0  0  0  0  0
    1.6163   -0.9047    0.5056 H   0  0  0  0  0  0  0  0  0  0  0  0
    1.6145    0.8821    0.5453 H   0  0  0  0  0  0  0  0  0  0  0  0
    1.6551    0.0231   -1.0010 H   0  0  0  0  0  0  0  0  0  0  0  0
  1  2  1  0  0  0  0
  2  3  1  0  0  0  0
  2  4  1  0  0  0  0
  2  5  1  0  0  0  0
  1  6  1  0  0  0  0
  1  7  1  0  0  0  0
  1  8  1  0  0  0  0
M  END
