8

C          1.07740        0.06430        0.03720
N          2.53490        0.06410        0.03720
H          2.88300        0.39860       -0.89020
H          2.88300        0.70000        0.79070
H          2.88280       -0.90640        0.21130
H          0.69770        1.09240       -0.14720
H          0.69750       -0.29000        1.01960
H          0.69760       -0.60930       -0.76100
