
 OpenBabel05242113183D

 11 10  0  0  0  0  0  0  0  0999 V2000
    0.9227   -0.0536    0.0478 C   0  0  0  0  0  0  0  0  0  0  0  0
    2.4496   -0.0400    0.0687 C   0  0  0  0  0  0  0  0  0  0  0  0
    2.9531    0.7062    1.2212 N   0  3  0  0  0  0  0  0  0  0  0  0
    2.6236    1.6980    1.1793 H   0  0  0  0  0  0  0  0  0  0  0  0
    2.6236    0.2620    2.1090 H   0  0  0  0  0  0  0  0  0  0  0  0
    3.9985    0.6959    1.2053 H   0  0  0  0  0  0  0  0  0  0  0  0
    0.5668   -0.6252   -0.8351 H   0  0  0  0  0  0  0  0  0  0  0  0
    0.5300    0.9834   -0.0161 H   0  0  0  0  0  0  0  0  0  0  0  0
    0.5301   -0.5363    0.9678 H   0  0  0  0  0  0  0  0  0  0  0  0
    2.8226    0.4280   -0.8689 H   0  0  0  0  0  0  0  0  0  0  0  0
    2.8227   -1.0871    0.1120 H   0  0  0  0  0  0  0  0  0  0  0  0
  1  2  1  0  0  0  0
  1  7  1  0  0  0  0
  1  8  1  0  0  0  0
  1  9  1  0  0  0  0
  2  3  1  0  0  0  0
  2 10  1  0  0  0  0
  2 11  1  0  0  0  0
  3  4  1  0  0  0  0
  3  5  1  0  0  0  0
  3  6  1  0  0  0  0
M  CHG  1   3   1
M  END
