
  xtb     05242113183D
 xtb: 6.3.3 (7355c4f)
  5  4  0     0  0            999 V2000
    1.0294   -0.0648   -0.0702 n   0  0  0  0  0  0  0  0  0  0  0  0
    0.6231   -0.8153    0.8010 h   0  0  0  0  0  0  0  0  0  0  0  0
    0.6229    1.0655    0.1438 h   0  0  0  0  0  0  0  0  0  0  0  0
    0.6233   -0.4444   -1.1553 h   0  0  0  0  0  0  0  0  0  0  0  0
    2.2485   -0.0650   -0.0704 h   0  0  0  0  0  0  0  0  0  0  0  0
  1  2  1  0  0  0  0
  1  3  1  0  0  0  0
  1  4  1  0  0  0  0
  1  5  1  0  0  0  0
M  END
