
  xtb     05242113183D
 xtb: 6.3.3 (7355c4f)
  8  7  0     0  0            999 V2000
    1.0921    0.3279   -0.1022 c   0  0  0  0  0  0  0  0  0  0  0  0
    0.3393   -0.0769   -1.2124 n   0  0  0  0  0  0  0  0  0  0  0  0
    0.8998   -0.5671   -1.9000 h   0  0  0  0  0  0  0  0  0  0  0  0
   -0.4973   -0.6107   -0.9932 h   0  0  0  0  0  0  0  0  0  0  0  0
    2.4112   -0.1768    0.0378 n   0  0  0  0  0  0  0  0  0  0  0  0
    0.5530    0.4452    0.8240 h   0  0  0  0  0  0  0  0  0  0  0  0
    2.9024   -0.1897   -0.8497 h   0  0  0  0  0  0  0  0  0  0  0  0
    2.9404    0.3572    0.7161 h   0  0  0  0  0  0  0  0  0  0  0  0
  1  2  1  0  0  0  0
  2  3  1  0  0  0  0
  2  4  1  0  0  0  0
  1  5  1  0  0  0  0
  1  6  1  0  0  0  0
  5  7  1  0  0  0  0
  5  8  1  0  0  0  0
M  END
