
  xtb     05242113183D
 xtb: 6.3.3 (7355c4f)
 11  9  0     0  0            999 V2000
    0.8182   -0.0868   -0.0035 c   0  0  0  0  0  0  0  0  0  0  0  0
    2.3469   -0.0403    0.0684 c   0  0  0  0  0  0  0  0  0  0  0  0
    2.8486    0.6968    1.2070 n   0  0  0  0  0  0  0  0  0  0  0  0
    2.5953    1.6755    1.1872 h   0  0  0  0  0  0  0  0  0  0  0  0
    2.5956    0.2781    2.0918 h   0  0  0  0  0  0  0  0  0  0  0  0
    4.8304    0.8321    1.4147 h   0  0  0  0  0  0  0  0  0  0  0  0
    0.5014   -0.6516   -0.8760 h   0  0  0  0  0  0  0  0  0  0  0  0
    0.4081    0.9190   -0.0761 h   0  0  0  0  0  0  0  0  0  0  0  0
    0.4079   -0.5646    0.8844 h   0  0  0  0  0  0  0  0  0  0  0  0
    2.7455    0.4289   -0.8341 h   0  0  0  0  0  0  0  0  0  0  0  0
    2.7454   -1.0559    0.1272 h   0  0  0  0  0  0  0  0  0  0  0  0
  1  2  1  0  0  0  0
  2  3  1  0  0  0  0
  3  4  1  0  0  0  0
  3  5  1  0  0  0  0
  1  7  1  0  0  0  0
  1  8  1  0  0  0  0
  1  9  1  0  0  0  0
  2 10  1  0  0  0  0
  2 11  1  0  0  0  0
M  END
