
 OpenBabel05242113183D

  8  7  0  0  0  0  0  0  0  0999 V2000
    1.0490    0.0802   -0.0553 C   0  0  0  0  0  0  0  0  0  0  0  0
    0.3931   -0.3060   -1.0912 N   0  3  0  0  0  0  0  0  0  0  0  0
    0.8818   -0.6230   -1.9414 H   0  0  0  0  0  0  0  0  0  0  0  0
   -0.6372   -0.3020   -1.0805 H   0  0  0  0  0  0  0  0  0  0  0  0
    2.4659    0.0816   -0.0514 N   0  0  0  0  0  0  0  0  0  0  0  0
    0.5137    0.4105    0.8305 H   0  0  0  0  0  0  0  0  0  0  0  0
    2.9993   -0.2264   -0.8776 H   0  0  0  0  0  0  0  0  0  0  0  0
    2.9752    0.3943    0.7872 H   0  0  0  0  0  0  0  0  0  0  0  0
  1  2  2  0  0  0  0
  1  5  1  0  0  0  0
  1  6  1  0  0  0  0
  2  3  1  0  0  0  0
  2  4  1  0  0  0  0
  5  7  1  0  0  0  0
  5  8  1  0  0  0  0
M  CHG  1   2   1
M  END
