
 OpenBabel05242113183D

 12 11  0  0  0  0  0  0  0  0999 V2000
    1.0990    0.0811   -0.0335 C   0  0  0  0  0  0  0  0  0  0  0  0
    0.5492    1.4396    0.4170 C   0  0  0  0  0  0  0  0  0  0  0  0
    0.9435    2.5109   -0.4942 N   0  0  0  0  0  0  0  0  0  0  0  0
    2.5601    0.0643   -0.0405 N   0  0  0  0  0  0  0  0  0  0  0  0
    0.7121   -0.1704   -1.0456 H   0  0  0  0  0  0  0  0  0  0  0  0
    0.7335   -0.6913    0.6799 H   0  0  0  0  0  0  0  0  0  0  0  0
    0.8968    1.6695    1.4481 H   0  0  0  0  0  0  0  0  0  0  0  0
   -0.5614    1.3723    0.4319 H   0  0  0  0  0  0  0  0  0  0  0  0
    1.9687    2.6946   -0.3963 H   0  0  0  0  0  0  0  0  0  0  0  0
    0.4509    3.3861   -0.2037 H   0  0  0  0  0  0  0  0  0  0  0  0
    2.9153    0.6667   -0.8177 H   0  0  0  0  0  0  0  0  0  0  0  0
    2.8748   -0.9115   -0.2459 H   0  0  0  0  0  0  0  0  0  0  0  0
  1  2  1  0  0  0  0
  1  4  1  0  0  0  0
  1  5  1  0  0  0  0
  1  6  1  0  0  0  0
  2  3  1  0  0  0  0
  2  7  1  0  0  0  0
  2  8  1  0  0  0  0
  3  9  1  0  0  0  0
  3 10  1  0  0  0  0
  4 11  1  0  0  0  0
  4 12  1  0  0  0  0
M  END
