
  xtb     05242113183D
 xtb: 6.3.3 (7355c4f)
 12 11  0     0  0            999 V2000
    1.0713    0.0831   -0.0633 c   0  0  0  0  0  0  0  0  0  0  0  0
    0.5768    1.4553    0.3924 c   0  0  0  0  0  0  0  0  0  0  0  0
   -0.8739    1.4567    0.4770 n   0  0  0  0  0  0  0  0  0  0  0  0
    2.5228    0.0372   -0.0130 n   0  0  0  0  0  0  0  0  0  0  0  0
    0.6596   -0.1299   -1.0665 h   0  0  0  0  0  0  0  0  0  0  0  0
    0.6835   -0.6723    0.6238 h   0  0  0  0  0  0  0  0  0  0  0  0
    0.9775    2.2247   -0.2923 h   0  0  0  0  0  0  0  0  0  0  0  0
    0.9755    1.6554    1.3893 h   0  0  0  0  0  0  0  0  0  0  0  0
   -1.2793    1.2901   -0.4386 h   0  0  0  0  0  0  0  0  0  0  0  0
   -1.2069    2.3571    0.8029 h   0  0  0  0  0  0  0  0  0  0  0  0
    2.9181    0.7172   -0.6548 h   0  0  0  0  0  0  0  0  0  0  0  0
    2.8562   -0.8792   -0.2904 h   0  0  0  0  0  0  0  0  0  0  0  0
  1  2  1  0  0  0  0
  2  3  1  0  0  0  0
  1  4  1  0  0  0  0
  1  5  1  0  0  0  0
  1  6  1  0  0  0  0
  2  7  1  0  0  0  0
  2  8  1  0  0  0  0
  3  9  1  0  0  0  0
  3 10  1  0  0  0  0
  4 11  1  0  0  0  0
  4 12  1  0  0  0  0
M  END
