
 OpenBabel05242113183D

 10  9  0  0  0  0  0  0  0  0999 V2000
    1.0802    0.0640    0.0026 C   0  0  0  0  0  0  0  0  0  0  0  0
    0.4365   -0.1051    1.1060 N   0  3  0  0  0  0  0  0  0  0  0  0
   -0.5941   -0.1074    1.1212 H   0  0  0  0  0  0  0  0  0  0  0  0
    0.9393   -0.2415    1.9953 H   0  0  0  0  0  0  0  0  0  0  0  0
    0.3736    0.2507   -1.2145 N   0  0  0  0  0  0  0  0  0  0  0  0
    2.4999    0.0647   -0.0025 N   0  0  0  0  0  0  0  0  0  0  0  0
   -0.6567    0.2536   -1.2329 H   0  0  0  0  0  0  0  0  0  0  0  0
    0.8858    0.3862   -2.0980 H   0  0  0  0  0  0  0  0  0  0  0  0
    3.0320   -0.0691    0.8697 H   0  0  0  0  0  0  0  0  0  0  0  0
    3.0169    0.1997   -0.8832 H   0  0  0  0  0  0  0  0  0  0  0  0
  1  2  2  0  0  0  0
  1  5  1  0  0  0  0
  1  6  1  0  0  0  0
  2  3  1  0  0  0  0
  2  4  1  0  0  0  0
  5  7  1  0  0  0  0
  5  8  1  0  0  0  0
  6  9  1  0  0  0  0
  6 10  1  0  0  0  0
M  CHG  1   2   1
M  END
