
 OpenBabel05242113183D

  4  3  0  0  0  0  0  0  0  0999 V2000
    0.8638   -0.1596    0.1228 S   0  3  0  0  0  0  0  0  0  0  0  0
    0.5730    1.1896   -0.1524 H   0  0  0  0  0  0  0  0  0  0  0  0
    0.5731   -0.5457   -1.1989 H   0  0  0  0  0  0  0  0  0  0  0  0
    2.2276    0.0199   -0.1747 H   0  0  0  0  0  0  0  0  0  0  0  0
  1  2  1  0  0  0  0
  1  3  1  0  0  0  0
  1  4  1  0  0  0  0
M  CHG  1   1   1
M  END
