
  xtb     05242113183D
 xtb: 6.3.3 (7355c4f)
  8  7  0     0  0            999 V2000
    1.1489   -0.0991   -0.0818 c   0  0  0  0  0  0  0  0  0  0  0  0
    2.9756   -0.1303   -0.2679 p   0  0  0  0  0  0  0  0  0  0  0  0
    3.0433    1.3394   -0.5758 h   0  0  0  0  0  0  0  0  0  0  0  0
    3.3822    0.1095    1.0374 h   0  0  0  0  0  0  0  0  0  0  0  0
    3.0619   -1.6117   -0.0328 h   0  0  0  0  0  0  0  0  0  0  0  0
    0.8360    0.8515    0.3473 h   0  0  0  0  0  0  0  0  0  0  0  0
    0.8228   -0.9240    0.5499 h   0  0  0  0  0  0  0  0  0  0  0  0
    0.6839   -0.2061   -1.0624 h   0  0  0  0  0  0  0  0  0  0  0  0
  1  2  1  0  0  0  0
  2  3  1  0  0  0  0
  2  4  1  0  0  0  0
  2  5  1  0  0  0  0
  1  6  1  0  0  0  0
  1  7  1  0  0  0  0
  1  8  1  0  0  0  0
M  END
