
 OpenBabel05242113183D

 11 10  0  0  0  0  0  0  0  0999 V2000
    1.1283   -0.0733    0.0579 C   0  0  0  0  0  0  0  0  0  0  0  0
    2.6060   -0.0739    0.0557 C   0  0  0  0  0  0  0  0  0  0  0  0
    3.2399   -0.3630   -1.0589 N   0  3  0  0  0  0  0  0  0  0  0  0
    4.2507   -0.3789   -1.1199 H   0  0  0  0  0  0  0  0  0  0  0  0
    2.7297   -0.5837   -1.9095 H   0  0  0  0  0  0  0  0  0  0  0  0
    3.2267    0.2171    1.1774 N   0  0  0  0  0  0  0  0  0  0  0  0
    0.7198   -0.3283   -0.9250 H   0  0  0  0  0  0  0  0  0  0  0  0
    0.7500    0.9160    0.3343 H   0  0  0  0  0  0  0  0  0  0  0  0
    0.7500   -0.8035    0.7804 H   0  0  0  0  0  0  0  0  0  0  0  0
    2.7022    0.4358    2.0201 H   0  0  0  0  0  0  0  0  0  0  0  0
    4.2364    0.2363    1.2514 H   0  0  0  0  0  0  0  0  0  0  0  0
  1  2  1  0  0  0  0
  1  7  1  0  0  0  0
  1  8  1  0  0  0  0
  1  9  1  0  0  0  0
  2  3  2  0  0  0  0
  2  6  1  0  0  0  0
  3  4  1  0  0  0  0
  3  5  1  0  0  0  0
  6 10  1  0  0  0  0
  6 11  1  0  0  0  0
M  CHG  1   3   1
M  END
