
 OpenBabel05242113183D

 11 10  0  0  0  0  0  0  0  0999 V2000
    1.0727   -0.0800    0.0307 C   0  0  0  0  0  0  0  0  0  0  0  0
    2.5766   -0.0825    0.0208 C   0  0  0  0  0  0  0  0  0  0  0  0
    3.2287   -0.3618   -1.0562 N   0  3  0  0  0  0  0  0  0  0  0  0
    4.2593   -0.3632   -1.0622 H   0  0  0  0  0  0  0  0  0  0  0  0
    2.7380   -0.5894   -1.9336 H   0  0  0  0  0  0  0  0  0  0  0  0
    3.2761    0.2278    1.2167 N   0  0  0  0  0  0  0  0  0  0  0  0
    0.6535   -0.3383   -0.9648 H   0  0  0  0  0  0  0  0  0  0  0  0
    0.7073    0.9282    0.3170 H   0  0  0  0  0  0  0  0  0  0  0  0
    0.7075   -0.8221    0.7709 H   0  0  0  0  0  0  0  0  0  0  0  0
    2.7585    0.4514    2.0791 H   0  0  0  0  0  0  0  0  0  0  0  0
    4.3062    0.2340    1.2406 H   0  0  0  0  0  0  0  0  0  0  0  0
  1  2  1  0  0  0  0
  1  7  1  0  0  0  0
  1  8  1  0  0  0  0
  1  9  1  0  0  0  0
  2  3  2  0  0  0  0
  2  6  1  0  0  0  0
  3  4  1  0  0  0  0
  3  5  1  0  0  0  0
  6 10  1  0  0  0  0
  6 11  1  0  0  0  0
M  CHG  1   3   1
M  END
