
  xtb     05242113183D
 xtb: 6.3.3 (7355c4f)
 11 10  0     0  0            999 V2000
    1.0877   -0.1384    0.0506 c   0  0  0  0  0  0  0  0  0  0  0  0
    2.5654   -0.3398    0.1148 c   0  0  0  0  0  0  0  0  0  0  0  0
    3.2460   -0.4678   -1.1103 n   0  0  0  0  0  0  0  0  0  0  0  0
    4.2161   -0.1841   -1.0472 h   0  0  0  0  0  0  0  0  0  0  0  0
    2.7921    0.0055   -1.8877 h   0  0  0  0  0  0  0  0  0  0  0  0
    3.2563    0.3427    1.1589 n   0  0  0  0  0  0  0  0  0  0  0  0
    0.6559   -0.8441   -0.6559 h   0  0  0  0  0  0  0  0  0  0  0  0
    0.8134    0.8767   -0.2722 h   0  0  0  0  0  0  0  0  0  0  0  0
    0.6389   -0.3069    1.0279 h   0  0  0  0  0  0  0  0  0  0  0  0
    2.7908    0.2174    2.0492 h   0  0  0  0  0  0  0  0  0  0  0  0
    4.2219    0.0429    1.2311 h   0  0  0  0  0  0  0  0  0  0  0  0
  1  2  1  0  0  0  0
  2  3  1  0  0  0  0
  3  4  1  0  0  0  0
  3  5  1  0  0  0  0
  2  6  1  0  0  0  0
  1  7  1  0  0  0  0
  1  8  1  0  0  0  0
  1  9  1  0  0  0  0
  6 10  1  0  0  0  0
  6 11  1  0  0  0  0
M  END
