
  xtb     02102216263D
 xtb: 6.4.1 (23d549d)
  4  2  0     0  0            999 V2000
    0.0817   -0.0000   -0.0438 S   0  0  0  0  0  0  0  0  0  0  0  0
   -0.2375    0.9625    0.8138 H   0  0  0  0  0  0  0  0  0  0  0  0
   -0.2375   -0.9624    0.8139 H   0  0  0  0  0  0  0  0  0  0  0  0
   -2.1240   -0.0000   -0.2356 H   0  0  0  0  0  0  0  0  0  0  0  0
  1  2  1  0  0  0  0
  1  3  1  0  0  0  0
M  END
