
  xtb     02102216243D
 xtb: 6.4.1 (23d549d)
  5  3  0     0  0            999 V2000
   -0.1790   -0.0001   -0.0001 N   0  0  0  0  0  0  0  0  0  0  0  0
    0.1417    0.3151    0.9037 H   0  0  0  0  0  0  0  0  0  0  0  0
    2.0594    0.0005    0.0005 H   0  0  0  0  0  0  0  0  0  0  0  0
    0.1429    0.6253   -0.7242 H   0  0  0  0  0  0  0  0  0  0  0  0
    0.1439   -0.9396   -0.1789 H   0  0  0  0  0  0  0  0  0  0  0  0
  1  2  1  0  0  0  0
  1  4  1  0  0  0  0
  1  5  1  0  0  0  0
M  END
