
  xtb     02102216243D
 xtb: 6.4.1 (23d549d)
 11  9  0     0  0            999 V2000
   -1.3433   -0.2255   -0.0000 C   0  0  0  0  0  0  0  0  0  0  0  0
   -0.0275    0.5580    0.0000 C   0  0  0  0  0  0  0  0  0  0  0  0
    1.1457   -0.2870    0.0000 N   0  0  0  0  0  0  0  0  0  0  0  0
    1.2216   -0.8581    0.8314 H   0  0  0  0  0  0  0  0  0  0  0  0
    1.2216   -0.8581   -0.8314 H   0  0  0  0  0  0  0  0  0  0  0  0
    2.9353    0.6031   -0.0000 H   0  0  0  0  0  0  0  0  0  0  0  0
   -2.1868    0.4593   -0.0000 H   0  0  0  0  0  0  0  0  0  0  0  0
   -1.4116   -0.8574    0.8837 H   0  0  0  0  0  0  0  0  0  0  0  0
   -1.4116   -0.8574   -0.8837 H   0  0  0  0  0  0  0  0  0  0  0  0
    0.0222    1.1975    0.8844 H   0  0  0  0  0  0  0  0  0  0  0  0
    0.0222    1.1975   -0.8844 H   0  0  0  0  0  0  0  0  0  0  0  0
  1  2  1  0  0  0  0
  2  3  1  0  0  0  0
  3  4  1  0  0  0  0
  3  5  1  0  0  0  0
  1  7  1  0  0  0  0
  1  8  1  0  0  0  0
  1  9  1  0  0  0  0
  2 10  1  0  0  0  0
  2 11  1  0  0  0  0
M  END
